**************************************************
* OpenRAM generated memory.
* Words: 1024
* Data bits: 32
* Banks: 1
* Column mux: 4:1
**************************************************
* Copyright 2020 The SkyWater PDK Authors
*
* Licensed under the Apache License, Version 2.0 (the "License");
* you may not use this file except in compliance with the License.
* You may obtain a copy of the License at
*
*     https://www.apache.org/licenses/LICENSE-2.0
*
* Unless required by applicable law or agreed to in writing, software
* distributed under the License is distributed on an "AS IS" BASIS,
* WITHOUT WARRANTIES OR CONDITIONS OF ANY KIND, either express or implied.
* See the License for the specific language governing permissions and
* limitations under the License.
*
* SPDX-License-Identifier: Apache-2.0

* SPICE3 file created from sky130_fd_bd_sram__openram_sram_dff.ext - technology: EFS8A

.subckt sky130_fd_bd_sram__openram_sram_dff D Q CLK VDD GND
X1000 a_511_725# a_n8_115# VDD VDD sky130_fd_pr__pfet_01v8 W=3 L=0.15
X1001 a_353_115# CLK a_11_624# GND sky130_fd_pr__nfet_01v8 W=1 L=0.15
X1002 a_353_725# a_203_89# a_11_624# VDD sky130_fd_pr__pfet_01v8 W=3 L=0.15
X1003 a_11_624# a_203_89# a_161_115# GND sky130_fd_pr__nfet_01v8 W=1 L=0.15
X1004 a_11_624# CLK a_161_725# VDD sky130_fd_pr__pfet_01v8 W=3 L=0.15
X1005 GND Q a_703_115# GND sky130_fd_pr__nfet_01v8 W=1 L=0.15
X1006 VDD Q a_703_725# VDD sky130_fd_pr__pfet_01v8 W=3 L=0.15
X1007 a_203_89# CLK GND GND sky130_fd_pr__nfet_01v8 W=1 L=0.15
X1008 a_203_89# CLK VDD VDD sky130_fd_pr__pfet_01v8 W=3 L=0.15
X1009 a_161_115# D GND GND sky130_fd_pr__nfet_01v8 W=1 L=0.15
X1010 a_161_725# D VDD VDD sky130_fd_pr__pfet_01v8 W=3 L=0.15
X1011 GND a_11_624# a_n8_115# GND sky130_fd_pr__nfet_01v8 W=1 L=0.15
X1012 a_703_115# a_203_89# ON GND sky130_fd_pr__nfet_01v8 W=1 L=0.15
X1013 VDD a_11_624# a_n8_115# VDD sky130_fd_pr__pfet_01v8 W=3 L=0.15
X1014 a_703_725# CLK ON VDD sky130_fd_pr__pfet_01v8 W=3 L=0.15
X1015 Q ON VDD VDD sky130_fd_pr__pfet_01v8 W=3 L=0.15
X1016 Q ON GND GND sky130_fd_pr__nfet_01v8 W=1 L=0.15
X1017 ON a_203_89# a_511_725# VDD sky130_fd_pr__pfet_01v8 W=3 L=0.15
X1018 ON CLK a_511_115# GND sky130_fd_pr__nfet_01v8 W=1 L=0.15
X1019 GND a_n8_115# a_353_115# GND sky130_fd_pr__nfet_01v8 W=1 L=0.15
X1020 VDD a_n8_115# a_353_725# VDD sky130_fd_pr__pfet_01v8 W=3 L=0.15
X1021 a_511_115# a_n8_115# GND GND sky130_fd_pr__nfet_01v8 W=1 L=0.15
.ends

.SUBCKT row_addr_dff din_0 din_1 din_2 din_3 din_4 din_5 din_6 din_7 dout_0 dout_1 dout_2 dout_3 dout_4 dout_5 dout_6 dout_7 clk vdd gnd
*.PININFO din_0:I din_1:I din_2:I din_3:I din_4:I din_5:I din_6:I din_7:I dout_0:O dout_1:O dout_2:O dout_3:O dout_4:O dout_5:O dout_6:O dout_7:O clk:I vdd:B gnd:B
* INPUT : din_0 
* INPUT : din_1 
* INPUT : din_2 
* INPUT : din_3 
* INPUT : din_4 
* INPUT : din_5 
* INPUT : din_6 
* INPUT : din_7 
* OUTPUT: dout_0 
* OUTPUT: dout_1 
* OUTPUT: dout_2 
* OUTPUT: dout_3 
* OUTPUT: dout_4 
* OUTPUT: dout_5 
* OUTPUT: dout_6 
* OUTPUT: dout_7 
* INPUT : clk 
* POWER : vdd 
* GROUND: gnd 
* rows: 8 cols: 1
Xdff_r0_c0 din_0 dout_0 CLK VDD GND sky130_fd_bd_sram__openram_sram_dff
Xdff_r1_c0 din_1 dout_1 CLK VDD GND sky130_fd_bd_sram__openram_sram_dff
Xdff_r2_c0 din_2 dout_2 CLK VDD GND sky130_fd_bd_sram__openram_sram_dff
Xdff_r3_c0 din_3 dout_3 CLK VDD GND sky130_fd_bd_sram__openram_sram_dff
Xdff_r4_c0 din_4 dout_4 CLK VDD GND sky130_fd_bd_sram__openram_sram_dff
Xdff_r5_c0 din_5 dout_5 CLK VDD GND sky130_fd_bd_sram__openram_sram_dff
Xdff_r6_c0 din_6 dout_6 CLK VDD GND sky130_fd_bd_sram__openram_sram_dff
Xdff_r7_c0 din_7 dout_7 CLK VDD GND sky130_fd_bd_sram__openram_sram_dff
.ENDS row_addr_dff

.SUBCKT col_addr_dff din_0 din_1 dout_0 dout_1 clk vdd gnd
*.PININFO din_0:I din_1:I dout_0:O dout_1:O clk:I vdd:B gnd:B
* INPUT : din_0 
* INPUT : din_1 
* OUTPUT: dout_0 
* OUTPUT: dout_1 
* INPUT : clk 
* POWER : vdd 
* GROUND: gnd 
* rows: 1 cols: 2
Xdff_r0_c0 din_0 dout_0 CLK VDD GND sky130_fd_bd_sram__openram_sram_dff
Xdff_r0_c1 din_1 dout_1 CLK VDD GND sky130_fd_bd_sram__openram_sram_dff
.ENDS col_addr_dff

.SUBCKT data_dff din_0 din_1 din_2 din_3 din_4 din_5 din_6 din_7 din_8 din_9 din_10 din_11 din_12 din_13 din_14 din_15 din_16 din_17 din_18 din_19 din_20 din_21 din_22 din_23 din_24 din_25 din_26 din_27 din_28 din_29 din_30 din_31 dout_0 dout_1 dout_2 dout_3 dout_4 dout_5 dout_6 dout_7 dout_8 dout_9 dout_10 dout_11 dout_12 dout_13 dout_14 dout_15 dout_16 dout_17 dout_18 dout_19 dout_20 dout_21 dout_22 dout_23 dout_24 dout_25 dout_26 dout_27 dout_28 dout_29 dout_30 dout_31 clk vdd gnd
*.PININFO din_0:I din_1:I din_2:I din_3:I din_4:I din_5:I din_6:I din_7:I din_8:I din_9:I din_10:I din_11:I din_12:I din_13:I din_14:I din_15:I din_16:I din_17:I din_18:I din_19:I din_20:I din_21:I din_22:I din_23:I din_24:I din_25:I din_26:I din_27:I din_28:I din_29:I din_30:I din_31:I dout_0:O dout_1:O dout_2:O dout_3:O dout_4:O dout_5:O dout_6:O dout_7:O dout_8:O dout_9:O dout_10:O dout_11:O dout_12:O dout_13:O dout_14:O dout_15:O dout_16:O dout_17:O dout_18:O dout_19:O dout_20:O dout_21:O dout_22:O dout_23:O dout_24:O dout_25:O dout_26:O dout_27:O dout_28:O dout_29:O dout_30:O dout_31:O clk:I vdd:B gnd:B
* INPUT : din_0 
* INPUT : din_1 
* INPUT : din_2 
* INPUT : din_3 
* INPUT : din_4 
* INPUT : din_5 
* INPUT : din_6 
* INPUT : din_7 
* INPUT : din_8 
* INPUT : din_9 
* INPUT : din_10 
* INPUT : din_11 
* INPUT : din_12 
* INPUT : din_13 
* INPUT : din_14 
* INPUT : din_15 
* INPUT : din_16 
* INPUT : din_17 
* INPUT : din_18 
* INPUT : din_19 
* INPUT : din_20 
* INPUT : din_21 
* INPUT : din_22 
* INPUT : din_23 
* INPUT : din_24 
* INPUT : din_25 
* INPUT : din_26 
* INPUT : din_27 
* INPUT : din_28 
* INPUT : din_29 
* INPUT : din_30 
* INPUT : din_31 
* OUTPUT: dout_0 
* OUTPUT: dout_1 
* OUTPUT: dout_2 
* OUTPUT: dout_3 
* OUTPUT: dout_4 
* OUTPUT: dout_5 
* OUTPUT: dout_6 
* OUTPUT: dout_7 
* OUTPUT: dout_8 
* OUTPUT: dout_9 
* OUTPUT: dout_10 
* OUTPUT: dout_11 
* OUTPUT: dout_12 
* OUTPUT: dout_13 
* OUTPUT: dout_14 
* OUTPUT: dout_15 
* OUTPUT: dout_16 
* OUTPUT: dout_17 
* OUTPUT: dout_18 
* OUTPUT: dout_19 
* OUTPUT: dout_20 
* OUTPUT: dout_21 
* OUTPUT: dout_22 
* OUTPUT: dout_23 
* OUTPUT: dout_24 
* OUTPUT: dout_25 
* OUTPUT: dout_26 
* OUTPUT: dout_27 
* OUTPUT: dout_28 
* OUTPUT: dout_29 
* OUTPUT: dout_30 
* OUTPUT: dout_31 
* INPUT : clk 
* POWER : vdd 
* GROUND: gnd 
* rows: 1 cols: 32
Xdff_r0_c0 din_0 dout_0 CLK VDD GND sky130_fd_bd_sram__openram_sram_dff
Xdff_r0_c1 din_1 dout_1 CLK VDD GND sky130_fd_bd_sram__openram_sram_dff
Xdff_r0_c2 din_2 dout_2 CLK VDD GND sky130_fd_bd_sram__openram_sram_dff
Xdff_r0_c3 din_3 dout_3 CLK VDD GND sky130_fd_bd_sram__openram_sram_dff
Xdff_r0_c4 din_4 dout_4 CLK VDD GND sky130_fd_bd_sram__openram_sram_dff
Xdff_r0_c5 din_5 dout_5 CLK VDD GND sky130_fd_bd_sram__openram_sram_dff
Xdff_r0_c6 din_6 dout_6 CLK VDD GND sky130_fd_bd_sram__openram_sram_dff
Xdff_r0_c7 din_7 dout_7 CLK VDD GND sky130_fd_bd_sram__openram_sram_dff
Xdff_r0_c8 din_8 dout_8 CLK VDD GND sky130_fd_bd_sram__openram_sram_dff
Xdff_r0_c9 din_9 dout_9 CLK VDD GND sky130_fd_bd_sram__openram_sram_dff
Xdff_r0_c10 din_10 dout_10 CLK VDD GND sky130_fd_bd_sram__openram_sram_dff
Xdff_r0_c11 din_11 dout_11 CLK VDD GND sky130_fd_bd_sram__openram_sram_dff
Xdff_r0_c12 din_12 dout_12 CLK VDD GND sky130_fd_bd_sram__openram_sram_dff
Xdff_r0_c13 din_13 dout_13 CLK VDD GND sky130_fd_bd_sram__openram_sram_dff
Xdff_r0_c14 din_14 dout_14 CLK VDD GND sky130_fd_bd_sram__openram_sram_dff
Xdff_r0_c15 din_15 dout_15 CLK VDD GND sky130_fd_bd_sram__openram_sram_dff
Xdff_r0_c16 din_16 dout_16 CLK VDD GND sky130_fd_bd_sram__openram_sram_dff
Xdff_r0_c17 din_17 dout_17 CLK VDD GND sky130_fd_bd_sram__openram_sram_dff
Xdff_r0_c18 din_18 dout_18 CLK VDD GND sky130_fd_bd_sram__openram_sram_dff
Xdff_r0_c19 din_19 dout_19 CLK VDD GND sky130_fd_bd_sram__openram_sram_dff
Xdff_r0_c20 din_20 dout_20 CLK VDD GND sky130_fd_bd_sram__openram_sram_dff
Xdff_r0_c21 din_21 dout_21 CLK VDD GND sky130_fd_bd_sram__openram_sram_dff
Xdff_r0_c22 din_22 dout_22 CLK VDD GND sky130_fd_bd_sram__openram_sram_dff
Xdff_r0_c23 din_23 dout_23 CLK VDD GND sky130_fd_bd_sram__openram_sram_dff
Xdff_r0_c24 din_24 dout_24 CLK VDD GND sky130_fd_bd_sram__openram_sram_dff
Xdff_r0_c25 din_25 dout_25 CLK VDD GND sky130_fd_bd_sram__openram_sram_dff
Xdff_r0_c26 din_26 dout_26 CLK VDD GND sky130_fd_bd_sram__openram_sram_dff
Xdff_r0_c27 din_27 dout_27 CLK VDD GND sky130_fd_bd_sram__openram_sram_dff
Xdff_r0_c28 din_28 dout_28 CLK VDD GND sky130_fd_bd_sram__openram_sram_dff
Xdff_r0_c29 din_29 dout_29 CLK VDD GND sky130_fd_bd_sram__openram_sram_dff
Xdff_r0_c30 din_30 dout_30 CLK VDD GND sky130_fd_bd_sram__openram_sram_dff
Xdff_r0_c31 din_31 dout_31 CLK VDD GND sky130_fd_bd_sram__openram_sram_dff
.ENDS data_dff

.SUBCKT wmask_dff din_0 din_1 din_2 din_3 dout_0 dout_1 dout_2 dout_3 clk vdd gnd
*.PININFO din_0:I din_1:I din_2:I din_3:I dout_0:O dout_1:O dout_2:O dout_3:O clk:I vdd:B gnd:B
* INPUT : din_0 
* INPUT : din_1 
* INPUT : din_2 
* INPUT : din_3 
* OUTPUT: dout_0 
* OUTPUT: dout_1 
* OUTPUT: dout_2 
* OUTPUT: dout_3 
* INPUT : clk 
* POWER : vdd 
* GROUND: gnd 
* rows: 1 cols: 4
Xdff_r0_c0 din_0 dout_0 CLK VDD GND sky130_fd_bd_sram__openram_sram_dff
Xdff_r0_c1 din_1 dout_1 CLK VDD GND sky130_fd_bd_sram__openram_sram_dff
Xdff_r0_c2 din_2 dout_2 CLK VDD GND sky130_fd_bd_sram__openram_sram_dff
Xdff_r0_c3 din_3 dout_3 CLK VDD GND sky130_fd_bd_sram__openram_sram_dff
.ENDS wmask_dff
* Copyright 2020 The SkyWater PDK Authors
*
* Licensed under the Apache License, Version 2.0 (the "License");
* you may not use this file except in compliance with the License.
* You may obtain a copy of the License at
*
*     https://www.apache.org/licenses/LICENSE-2.0
*
* Unless required by applicable law or agreed to in writing, software
* distributed under the License is distributed on an "AS IS" BASIS,
* WITHOUT WARRANTIES OR CONDITIONS OF ANY KIND, either express or implied.
* See the License for the specific language governing permissions and
* limitations under the License.
*
* SPDX-License-Identifier: Apache-2.0

* NGSPICE file created from sky130_fd_bd_sram__openram_nand2_dec.ext - technology: EFS8A


* Top level circuit sky130_fd_bd_sram__openram_nand2_dec
.subckt sky130_fd_bd_sram__openram_nand2_dec A B Z VDD GND

X1001 Z B VDD VDD sky130_fd_pr__pfet_01v8 W=1.12 L=0.15
X1002 VDD A Z VDD sky130_fd_pr__pfet_01v8 W=1.12 L=0.15
X1000 Z A a_n722_276# GND sky130_fd_pr__nfet_01v8 W=0.74 L=0.15
X1003 a_n722_276# B GND GND sky130_fd_pr__nfet_01v8 W=0.74 L=0.15
.ends


* spice ptx X{0} {1} sky130_fd_pr__nfet_01v8 m=1 w=0.36 l=0.15 pd=1.02 ps=1.02 as=0.14u ad=0.14u

* spice ptx X{0} {1} sky130_fd_pr__pfet_01v8 m=1 w=1.12 l=0.15 pd=2.54 ps=2.54 as=0.42u ad=0.42u

.SUBCKT pinv_dec A Z vdd gnd
*.PININFO A:I Z:O vdd:B gnd:B
* INPUT : A 
* OUTPUT: Z 
* POWER : vdd 
* GROUND: gnd 
Xpinv_pmos Z A vdd vdd sky130_fd_pr__pfet_01v8 m=1 w=1.12 l=0.15 pd=2.54 ps=2.54 as=0.42u ad=0.42u
Xpinv_nmos Z A gnd gnd sky130_fd_pr__nfet_01v8 m=1 w=0.36 l=0.15 pd=1.02 ps=1.02 as=0.14u ad=0.14u
.ENDS pinv_dec

.SUBCKT and2_dec A B Z vdd gnd
*.PININFO A:I B:I Z:O vdd:B gnd:B
* INPUT : A 
* INPUT : B 
* OUTPUT: Z 
* POWER : vdd 
* GROUND: gnd 
* size: 1
Xpand2_dec_nand A B zb_int vdd gnd sky130_fd_bd_sram__openram_nand2_dec
Xpand2_dec_inv zb_int Z vdd gnd pinv_dec
.ENDS and2_dec
* Copyright 2020 The SkyWater PDK Authors
*
* Licensed under the Apache License, Version 2.0 (the "License");
* you may not use this file except in compliance with the License.
* You may obtain a copy of the License at
*
*     https://www.apache.org/licenses/LICENSE-2.0
*
* Unless required by applicable law or agreed to in writing, software
* distributed under the License is distributed on an "AS IS" BASIS,
* WITHOUT WARRANTIES OR CONDITIONS OF ANY KIND, either express or implied.
* See the License for the specific language governing permissions and
* limitations under the License.
*
* SPDX-License-Identifier: Apache-2.0

* NGSPICE file created from sky130_fd_bd_sram__openram_nand3_dec.ext - technology: EFS8A


* Top level circuit sky130_fd_bd_sram__openram_nand3_dec
.subckt sky130_fd_bd_sram__openram_nand3_dec A B C Z VDD GND

X1001 Z A a_n346_328# GND sky130_fd_pr__nfet_01v8 W=0.74 L=0.15
X1002 a_n346_256# C GND GND sky130_fd_pr__nfet_01v8 W=0.74 L=0.15
X1003 a_n346_328# B a_n346_256# GND sky130_fd_pr__nfet_01v8 W=0.74 L=0.15
X1000 Z B VDD VDD sky130_fd_pr__pfet_01v8 W=1.12 L=0.15
X1004 Z A VDD VDD sky130_fd_pr__pfet_01v8 W=1.12 L=0.15
X1005 Z C VDD VDD sky130_fd_pr__pfet_01v8 W=1.12 L=0.15
.ends


.SUBCKT and3_dec A B C Z vdd gnd
*.PININFO A:I B:I C:I Z:O vdd:B gnd:B
* INPUT : A 
* INPUT : B 
* INPUT : C 
* OUTPUT: Z 
* POWER : vdd 
* GROUND: gnd 
* size: 1
Xpand3_dec_nand A B C zb_int vdd gnd sky130_fd_bd_sram__openram_nand3_dec
Xpand3_dec_inv zb_int Z vdd gnd pinv_dec
.ENDS and3_dec

.SUBCKT hierarchical_predecode2x4 in_0 in_1 out_0 out_1 out_2 out_3 vdd gnd
*.PININFO in_0:I in_1:I out_0:O out_1:O out_2:O out_3:O vdd:B gnd:B
* INPUT : in_0 
* INPUT : in_1 
* OUTPUT: out_0 
* OUTPUT: out_1 
* OUTPUT: out_2 
* OUTPUT: out_3 
* POWER : vdd 
* GROUND: gnd 
Xpre_inv_0 in_0 inbar_0 vdd gnd pinv_dec
Xpre_inv_1 in_1 inbar_1 vdd gnd pinv_dec
XXpre2x4_and_0 inbar_0 inbar_1 out_0 vdd gnd and2_dec
XXpre2x4_and_1 in_0 inbar_1 out_1 vdd gnd and2_dec
XXpre2x4_and_2 inbar_0 in_1 out_2 vdd gnd and2_dec
XXpre2x4_and_3 in_0 in_1 out_3 vdd gnd and2_dec
.ENDS hierarchical_predecode2x4

.SUBCKT hierarchical_predecode3x8 in_0 in_1 in_2 out_0 out_1 out_2 out_3 out_4 out_5 out_6 out_7 vdd gnd
*.PININFO in_0:I in_1:I in_2:I out_0:O out_1:O out_2:O out_3:O out_4:O out_5:O out_6:O out_7:O vdd:B gnd:B
* INPUT : in_0 
* INPUT : in_1 
* INPUT : in_2 
* OUTPUT: out_0 
* OUTPUT: out_1 
* OUTPUT: out_2 
* OUTPUT: out_3 
* OUTPUT: out_4 
* OUTPUT: out_5 
* OUTPUT: out_6 
* OUTPUT: out_7 
* POWER : vdd 
* GROUND: gnd 
Xpre_inv_0 in_0 inbar_0 vdd gnd pinv_dec
Xpre_inv_1 in_1 inbar_1 vdd gnd pinv_dec
Xpre_inv_2 in_2 inbar_2 vdd gnd pinv_dec
XXpre3x8_and_0 inbar_0 inbar_1 inbar_2 out_0 vdd gnd and3_dec
XXpre3x8_and_1 in_0 inbar_1 inbar_2 out_1 vdd gnd and3_dec
XXpre3x8_and_2 inbar_0 in_1 inbar_2 out_2 vdd gnd and3_dec
XXpre3x8_and_3 in_0 in_1 inbar_2 out_3 vdd gnd and3_dec
XXpre3x8_and_4 inbar_0 inbar_1 in_2 out_4 vdd gnd and3_dec
XXpre3x8_and_5 in_0 inbar_1 in_2 out_5 vdd gnd and3_dec
XXpre3x8_and_6 inbar_0 in_1 in_2 out_6 vdd gnd and3_dec
XXpre3x8_and_7 in_0 in_1 in_2 out_7 vdd gnd and3_dec
.ENDS hierarchical_predecode3x8
* Copyright 2020 The SkyWater PDK Authors
*
* Licensed under the Apache License, Version 2.0 (the "License");
* you may not use this file except in compliance with the License.
* You may obtain a copy of the License at
*
*     https://www.apache.org/licenses/LICENSE-2.0
*
* Unless required by applicable law or agreed to in writing, software
* distributed under the License is distributed on an "AS IS" BASIS,
* WITHOUT WARRANTIES OR CONDITIONS OF ANY KIND, either express or implied.
* See the License for the specific language governing permissions and
* limitations under the License.
*
* SPDX-License-Identifier: Apache-2.0

* NGSPICE file created from sky130_fd_bd_sram__openram_nand4_dec.ext - technology: EFS8A

.subckt sky130_fd_bd_sram__openram_nand4_dec A B C D Z VDD GND
X1000 Z A a_406_334# GND sky130_fd_pr__nfet_01v8 W=0.74 L=0.15
X1004 a_406_190# D GND GND sky130_fd_pr__nfet_01v8 W=0.74 L=0.15
X1005 a_406_262# C a_406_190# GND sky130_fd_pr__nfet_01v8 W=0.74 L=0.15
X1007 a_406_334# B a_406_262# GND sky130_fd_pr__nfet_01v8 W=0.74 L=0.15
X1001 Z A VDD VDD sky130_fd_pr__pfet_01v8 W=1.12 L=0.15
X1002 VDD C Z VDD sky130_fd_pr__pfet_01v8 W=1.12 L=0.15
X1003 VDD D Z VDD sky130_fd_pr__pfet_01v8 W=1.12 L=0.15
X1006 Z B VDD VDD sky130_fd_pr__pfet_01v8 W=1.12 L=0.15
.ends


.SUBCKT and4_dec A B C D Z vdd gnd
*.PININFO A:I B:I C:I D:I Z:O vdd:B gnd:B
* INPUT : A 
* INPUT : B 
* INPUT : C 
* INPUT : D 
* OUTPUT: Z 
* POWER : vdd 
* GROUND: gnd 
* size: 1
Xpand4_dec_nand A B C D zb_int vdd gnd sky130_fd_bd_sram__openram_nand4_dec
Xpand4_dec_inv zb_int Z vdd gnd pinv_dec
.ENDS and4_dec

.SUBCKT hierarchical_predecode4x16 in_0 in_1 in_2 in_3 out_0 out_1 out_2 out_3 out_4 out_5 out_6 out_7 out_8 out_9 out_10 out_11 out_12 out_13 out_14 out_15 vdd gnd
*.PININFO in_0:I in_1:I in_2:I in_3:I out_0:O out_1:O out_2:O out_3:O out_4:O out_5:O out_6:O out_7:O out_8:O out_9:O out_10:O out_11:O out_12:O out_13:O out_14:O out_15:O vdd:B gnd:B
* INPUT : in_0 
* INPUT : in_1 
* INPUT : in_2 
* INPUT : in_3 
* OUTPUT: out_0 
* OUTPUT: out_1 
* OUTPUT: out_2 
* OUTPUT: out_3 
* OUTPUT: out_4 
* OUTPUT: out_5 
* OUTPUT: out_6 
* OUTPUT: out_7 
* OUTPUT: out_8 
* OUTPUT: out_9 
* OUTPUT: out_10 
* OUTPUT: out_11 
* OUTPUT: out_12 
* OUTPUT: out_13 
* OUTPUT: out_14 
* OUTPUT: out_15 
* POWER : vdd 
* GROUND: gnd 
Xpre_inv_0 in_0 inbar_0 vdd gnd pinv_dec
Xpre_inv_1 in_1 inbar_1 vdd gnd pinv_dec
Xpre_inv_2 in_2 inbar_2 vdd gnd pinv_dec
Xpre_inv_3 in_3 inbar_3 vdd gnd pinv_dec
XXpre4x16_and_0 inbar_0 inbar_1 inbar_2 inbar_3 out_0 vdd gnd and4_dec
XXpre4x16_and_1 in_0 inbar_1 inbar_2 inbar_3 out_1 vdd gnd and4_dec
XXpre4x16_and_2 inbar_0 in_1 inbar_2 inbar_3 out_2 vdd gnd and4_dec
XXpre4x16_and_3 in_0 in_1 inbar_2 inbar_3 out_3 vdd gnd and4_dec
XXpre4x16_and_4 inbar_0 inbar_1 in_2 inbar_3 out_4 vdd gnd and4_dec
XXpre4x16_and_5 in_0 inbar_1 in_2 inbar_3 out_5 vdd gnd and4_dec
XXpre4x16_and_6 inbar_0 in_1 in_2 inbar_3 out_6 vdd gnd and4_dec
XXpre4x16_and_7 in_0 in_1 in_2 inbar_3 out_7 vdd gnd and4_dec
XXpre4x16_and_8 inbar_0 inbar_1 inbar_2 in_3 out_8 vdd gnd and4_dec
XXpre4x16_and_9 in_0 inbar_1 inbar_2 in_3 out_9 vdd gnd and4_dec
XXpre4x16_and_10 inbar_0 in_1 inbar_2 in_3 out_10 vdd gnd and4_dec
XXpre4x16_and_11 in_0 in_1 inbar_2 in_3 out_11 vdd gnd and4_dec
XXpre4x16_and_12 inbar_0 inbar_1 in_2 in_3 out_12 vdd gnd and4_dec
XXpre4x16_and_13 in_0 inbar_1 in_2 in_3 out_13 vdd gnd and4_dec
XXpre4x16_and_14 inbar_0 in_1 in_2 in_3 out_14 vdd gnd and4_dec
XXpre4x16_and_15 in_0 in_1 in_2 in_3 out_15 vdd gnd and4_dec
.ENDS hierarchical_predecode4x16

.SUBCKT hierarchical_decoder addr_0 addr_1 addr_2 addr_3 addr_4 addr_5 addr_6 addr_7 decode_0 decode_1 decode_2 decode_3 decode_4 decode_5 decode_6 decode_7 decode_8 decode_9 decode_10 decode_11 decode_12 decode_13 decode_14 decode_15 decode_16 decode_17 decode_18 decode_19 decode_20 decode_21 decode_22 decode_23 decode_24 decode_25 decode_26 decode_27 decode_28 decode_29 decode_30 decode_31 decode_32 decode_33 decode_34 decode_35 decode_36 decode_37 decode_38 decode_39 decode_40 decode_41 decode_42 decode_43 decode_44 decode_45 decode_46 decode_47 decode_48 decode_49 decode_50 decode_51 decode_52 decode_53 decode_54 decode_55 decode_56 decode_57 decode_58 decode_59 decode_60 decode_61 decode_62 decode_63 decode_64 decode_65 decode_66 decode_67 decode_68 decode_69 decode_70 decode_71 decode_72 decode_73 decode_74 decode_75 decode_76 decode_77 decode_78 decode_79 decode_80 decode_81 decode_82 decode_83 decode_84 decode_85 decode_86 decode_87 decode_88 decode_89 decode_90 decode_91 decode_92 decode_93 decode_94 decode_95 decode_96 decode_97 decode_98 decode_99 decode_100 decode_101 decode_102 decode_103 decode_104 decode_105 decode_106 decode_107 decode_108 decode_109 decode_110 decode_111 decode_112 decode_113 decode_114 decode_115 decode_116 decode_117 decode_118 decode_119 decode_120 decode_121 decode_122 decode_123 decode_124 decode_125 decode_126 decode_127 decode_128 decode_129 decode_130 decode_131 decode_132 decode_133 decode_134 decode_135 decode_136 decode_137 decode_138 decode_139 decode_140 decode_141 decode_142 decode_143 decode_144 decode_145 decode_146 decode_147 decode_148 decode_149 decode_150 decode_151 decode_152 decode_153 decode_154 decode_155 decode_156 decode_157 decode_158 decode_159 decode_160 decode_161 decode_162 decode_163 decode_164 decode_165 decode_166 decode_167 decode_168 decode_169 decode_170 decode_171 decode_172 decode_173 decode_174 decode_175 decode_176 decode_177 decode_178 decode_179 decode_180 decode_181 decode_182 decode_183 decode_184 decode_185 decode_186 decode_187 decode_188 decode_189 decode_190 decode_191 decode_192 decode_193 decode_194 decode_195 decode_196 decode_197 decode_198 decode_199 decode_200 decode_201 decode_202 decode_203 decode_204 decode_205 decode_206 decode_207 decode_208 decode_209 decode_210 decode_211 decode_212 decode_213 decode_214 decode_215 decode_216 decode_217 decode_218 decode_219 decode_220 decode_221 decode_222 decode_223 decode_224 decode_225 decode_226 decode_227 decode_228 decode_229 decode_230 decode_231 decode_232 decode_233 decode_234 decode_235 decode_236 decode_237 decode_238 decode_239 decode_240 decode_241 decode_242 decode_243 decode_244 decode_245 decode_246 decode_247 decode_248 decode_249 decode_250 decode_251 decode_252 decode_253 decode_254 decode_255 vdd gnd
*.PININFO addr_0:I addr_1:I addr_2:I addr_3:I addr_4:I addr_5:I addr_6:I addr_7:I decode_0:O decode_1:O decode_2:O decode_3:O decode_4:O decode_5:O decode_6:O decode_7:O decode_8:O decode_9:O decode_10:O decode_11:O decode_12:O decode_13:O decode_14:O decode_15:O decode_16:O decode_17:O decode_18:O decode_19:O decode_20:O decode_21:O decode_22:O decode_23:O decode_24:O decode_25:O decode_26:O decode_27:O decode_28:O decode_29:O decode_30:O decode_31:O decode_32:O decode_33:O decode_34:O decode_35:O decode_36:O decode_37:O decode_38:O decode_39:O decode_40:O decode_41:O decode_42:O decode_43:O decode_44:O decode_45:O decode_46:O decode_47:O decode_48:O decode_49:O decode_50:O decode_51:O decode_52:O decode_53:O decode_54:O decode_55:O decode_56:O decode_57:O decode_58:O decode_59:O decode_60:O decode_61:O decode_62:O decode_63:O decode_64:O decode_65:O decode_66:O decode_67:O decode_68:O decode_69:O decode_70:O decode_71:O decode_72:O decode_73:O decode_74:O decode_75:O decode_76:O decode_77:O decode_78:O decode_79:O decode_80:O decode_81:O decode_82:O decode_83:O decode_84:O decode_85:O decode_86:O decode_87:O decode_88:O decode_89:O decode_90:O decode_91:O decode_92:O decode_93:O decode_94:O decode_95:O decode_96:O decode_97:O decode_98:O decode_99:O decode_100:O decode_101:O decode_102:O decode_103:O decode_104:O decode_105:O decode_106:O decode_107:O decode_108:O decode_109:O decode_110:O decode_111:O decode_112:O decode_113:O decode_114:O decode_115:O decode_116:O decode_117:O decode_118:O decode_119:O decode_120:O decode_121:O decode_122:O decode_123:O decode_124:O decode_125:O decode_126:O decode_127:O decode_128:O decode_129:O decode_130:O decode_131:O decode_132:O decode_133:O decode_134:O decode_135:O decode_136:O decode_137:O decode_138:O decode_139:O decode_140:O decode_141:O decode_142:O decode_143:O decode_144:O decode_145:O decode_146:O decode_147:O decode_148:O decode_149:O decode_150:O decode_151:O decode_152:O decode_153:O decode_154:O decode_155:O decode_156:O decode_157:O decode_158:O decode_159:O decode_160:O decode_161:O decode_162:O decode_163:O decode_164:O decode_165:O decode_166:O decode_167:O decode_168:O decode_169:O decode_170:O decode_171:O decode_172:O decode_173:O decode_174:O decode_175:O decode_176:O decode_177:O decode_178:O decode_179:O decode_180:O decode_181:O decode_182:O decode_183:O decode_184:O decode_185:O decode_186:O decode_187:O decode_188:O decode_189:O decode_190:O decode_191:O decode_192:O decode_193:O decode_194:O decode_195:O decode_196:O decode_197:O decode_198:O decode_199:O decode_200:O decode_201:O decode_202:O decode_203:O decode_204:O decode_205:O decode_206:O decode_207:O decode_208:O decode_209:O decode_210:O decode_211:O decode_212:O decode_213:O decode_214:O decode_215:O decode_216:O decode_217:O decode_218:O decode_219:O decode_220:O decode_221:O decode_222:O decode_223:O decode_224:O decode_225:O decode_226:O decode_227:O decode_228:O decode_229:O decode_230:O decode_231:O decode_232:O decode_233:O decode_234:O decode_235:O decode_236:O decode_237:O decode_238:O decode_239:O decode_240:O decode_241:O decode_242:O decode_243:O decode_244:O decode_245:O decode_246:O decode_247:O decode_248:O decode_249:O decode_250:O decode_251:O decode_252:O decode_253:O decode_254:O decode_255:O vdd:B gnd:B
* INPUT : addr_0 
* INPUT : addr_1 
* INPUT : addr_2 
* INPUT : addr_3 
* INPUT : addr_4 
* INPUT : addr_5 
* INPUT : addr_6 
* INPUT : addr_7 
* OUTPUT: decode_0 
* OUTPUT: decode_1 
* OUTPUT: decode_2 
* OUTPUT: decode_3 
* OUTPUT: decode_4 
* OUTPUT: decode_5 
* OUTPUT: decode_6 
* OUTPUT: decode_7 
* OUTPUT: decode_8 
* OUTPUT: decode_9 
* OUTPUT: decode_10 
* OUTPUT: decode_11 
* OUTPUT: decode_12 
* OUTPUT: decode_13 
* OUTPUT: decode_14 
* OUTPUT: decode_15 
* OUTPUT: decode_16 
* OUTPUT: decode_17 
* OUTPUT: decode_18 
* OUTPUT: decode_19 
* OUTPUT: decode_20 
* OUTPUT: decode_21 
* OUTPUT: decode_22 
* OUTPUT: decode_23 
* OUTPUT: decode_24 
* OUTPUT: decode_25 
* OUTPUT: decode_26 
* OUTPUT: decode_27 
* OUTPUT: decode_28 
* OUTPUT: decode_29 
* OUTPUT: decode_30 
* OUTPUT: decode_31 
* OUTPUT: decode_32 
* OUTPUT: decode_33 
* OUTPUT: decode_34 
* OUTPUT: decode_35 
* OUTPUT: decode_36 
* OUTPUT: decode_37 
* OUTPUT: decode_38 
* OUTPUT: decode_39 
* OUTPUT: decode_40 
* OUTPUT: decode_41 
* OUTPUT: decode_42 
* OUTPUT: decode_43 
* OUTPUT: decode_44 
* OUTPUT: decode_45 
* OUTPUT: decode_46 
* OUTPUT: decode_47 
* OUTPUT: decode_48 
* OUTPUT: decode_49 
* OUTPUT: decode_50 
* OUTPUT: decode_51 
* OUTPUT: decode_52 
* OUTPUT: decode_53 
* OUTPUT: decode_54 
* OUTPUT: decode_55 
* OUTPUT: decode_56 
* OUTPUT: decode_57 
* OUTPUT: decode_58 
* OUTPUT: decode_59 
* OUTPUT: decode_60 
* OUTPUT: decode_61 
* OUTPUT: decode_62 
* OUTPUT: decode_63 
* OUTPUT: decode_64 
* OUTPUT: decode_65 
* OUTPUT: decode_66 
* OUTPUT: decode_67 
* OUTPUT: decode_68 
* OUTPUT: decode_69 
* OUTPUT: decode_70 
* OUTPUT: decode_71 
* OUTPUT: decode_72 
* OUTPUT: decode_73 
* OUTPUT: decode_74 
* OUTPUT: decode_75 
* OUTPUT: decode_76 
* OUTPUT: decode_77 
* OUTPUT: decode_78 
* OUTPUT: decode_79 
* OUTPUT: decode_80 
* OUTPUT: decode_81 
* OUTPUT: decode_82 
* OUTPUT: decode_83 
* OUTPUT: decode_84 
* OUTPUT: decode_85 
* OUTPUT: decode_86 
* OUTPUT: decode_87 
* OUTPUT: decode_88 
* OUTPUT: decode_89 
* OUTPUT: decode_90 
* OUTPUT: decode_91 
* OUTPUT: decode_92 
* OUTPUT: decode_93 
* OUTPUT: decode_94 
* OUTPUT: decode_95 
* OUTPUT: decode_96 
* OUTPUT: decode_97 
* OUTPUT: decode_98 
* OUTPUT: decode_99 
* OUTPUT: decode_100 
* OUTPUT: decode_101 
* OUTPUT: decode_102 
* OUTPUT: decode_103 
* OUTPUT: decode_104 
* OUTPUT: decode_105 
* OUTPUT: decode_106 
* OUTPUT: decode_107 
* OUTPUT: decode_108 
* OUTPUT: decode_109 
* OUTPUT: decode_110 
* OUTPUT: decode_111 
* OUTPUT: decode_112 
* OUTPUT: decode_113 
* OUTPUT: decode_114 
* OUTPUT: decode_115 
* OUTPUT: decode_116 
* OUTPUT: decode_117 
* OUTPUT: decode_118 
* OUTPUT: decode_119 
* OUTPUT: decode_120 
* OUTPUT: decode_121 
* OUTPUT: decode_122 
* OUTPUT: decode_123 
* OUTPUT: decode_124 
* OUTPUT: decode_125 
* OUTPUT: decode_126 
* OUTPUT: decode_127 
* OUTPUT: decode_128 
* OUTPUT: decode_129 
* OUTPUT: decode_130 
* OUTPUT: decode_131 
* OUTPUT: decode_132 
* OUTPUT: decode_133 
* OUTPUT: decode_134 
* OUTPUT: decode_135 
* OUTPUT: decode_136 
* OUTPUT: decode_137 
* OUTPUT: decode_138 
* OUTPUT: decode_139 
* OUTPUT: decode_140 
* OUTPUT: decode_141 
* OUTPUT: decode_142 
* OUTPUT: decode_143 
* OUTPUT: decode_144 
* OUTPUT: decode_145 
* OUTPUT: decode_146 
* OUTPUT: decode_147 
* OUTPUT: decode_148 
* OUTPUT: decode_149 
* OUTPUT: decode_150 
* OUTPUT: decode_151 
* OUTPUT: decode_152 
* OUTPUT: decode_153 
* OUTPUT: decode_154 
* OUTPUT: decode_155 
* OUTPUT: decode_156 
* OUTPUT: decode_157 
* OUTPUT: decode_158 
* OUTPUT: decode_159 
* OUTPUT: decode_160 
* OUTPUT: decode_161 
* OUTPUT: decode_162 
* OUTPUT: decode_163 
* OUTPUT: decode_164 
* OUTPUT: decode_165 
* OUTPUT: decode_166 
* OUTPUT: decode_167 
* OUTPUT: decode_168 
* OUTPUT: decode_169 
* OUTPUT: decode_170 
* OUTPUT: decode_171 
* OUTPUT: decode_172 
* OUTPUT: decode_173 
* OUTPUT: decode_174 
* OUTPUT: decode_175 
* OUTPUT: decode_176 
* OUTPUT: decode_177 
* OUTPUT: decode_178 
* OUTPUT: decode_179 
* OUTPUT: decode_180 
* OUTPUT: decode_181 
* OUTPUT: decode_182 
* OUTPUT: decode_183 
* OUTPUT: decode_184 
* OUTPUT: decode_185 
* OUTPUT: decode_186 
* OUTPUT: decode_187 
* OUTPUT: decode_188 
* OUTPUT: decode_189 
* OUTPUT: decode_190 
* OUTPUT: decode_191 
* OUTPUT: decode_192 
* OUTPUT: decode_193 
* OUTPUT: decode_194 
* OUTPUT: decode_195 
* OUTPUT: decode_196 
* OUTPUT: decode_197 
* OUTPUT: decode_198 
* OUTPUT: decode_199 
* OUTPUT: decode_200 
* OUTPUT: decode_201 
* OUTPUT: decode_202 
* OUTPUT: decode_203 
* OUTPUT: decode_204 
* OUTPUT: decode_205 
* OUTPUT: decode_206 
* OUTPUT: decode_207 
* OUTPUT: decode_208 
* OUTPUT: decode_209 
* OUTPUT: decode_210 
* OUTPUT: decode_211 
* OUTPUT: decode_212 
* OUTPUT: decode_213 
* OUTPUT: decode_214 
* OUTPUT: decode_215 
* OUTPUT: decode_216 
* OUTPUT: decode_217 
* OUTPUT: decode_218 
* OUTPUT: decode_219 
* OUTPUT: decode_220 
* OUTPUT: decode_221 
* OUTPUT: decode_222 
* OUTPUT: decode_223 
* OUTPUT: decode_224 
* OUTPUT: decode_225 
* OUTPUT: decode_226 
* OUTPUT: decode_227 
* OUTPUT: decode_228 
* OUTPUT: decode_229 
* OUTPUT: decode_230 
* OUTPUT: decode_231 
* OUTPUT: decode_232 
* OUTPUT: decode_233 
* OUTPUT: decode_234 
* OUTPUT: decode_235 
* OUTPUT: decode_236 
* OUTPUT: decode_237 
* OUTPUT: decode_238 
* OUTPUT: decode_239 
* OUTPUT: decode_240 
* OUTPUT: decode_241 
* OUTPUT: decode_242 
* OUTPUT: decode_243 
* OUTPUT: decode_244 
* OUTPUT: decode_245 
* OUTPUT: decode_246 
* OUTPUT: decode_247 
* OUTPUT: decode_248 
* OUTPUT: decode_249 
* OUTPUT: decode_250 
* OUTPUT: decode_251 
* OUTPUT: decode_252 
* OUTPUT: decode_253 
* OUTPUT: decode_254 
* OUTPUT: decode_255 
* POWER : vdd 
* GROUND: gnd 
Xpre_0 addr_0 addr_1 out_0 out_1 out_2 out_3 vdd gnd hierarchical_predecode2x4